Version 4
SHEET 1 880 680
WIRE 368 192 128 192
WIRE 368 208 368 192
WIRE 176 240 128 240
WIRE 80 272 -64 272
WIRE -64 288 -64 272
WIRE 128 304 128 288
WIRE 176 304 176 240
WIRE 176 304 128 304
WIRE 128 336 128 304
WIRE 368 352 368 288
WIRE -64 416 -64 368
FLAG -64 416 0
FLAG 368 352 0
FLAG 128 336 0
SYMBOL nmos4 80 192 R0
SYMATTR InstName M1
SYMATTR Value MOSFET-N
SYMATTR Value2 l=0.6u w=10.8u
SYMBOL voltage -64 272 R0
WINDOW 123 0 0 Left 0
WINDOW 39 0 0 Left 0
SYMATTR InstName V1
SYMATTR Value 3.3
SYMBOL voltage 368 192 R0
WINDOW 123 0 0 Left 0
WINDOW 39 0 0 Left 0
SYMATTR InstName V2
SYMATTR Value 3.3
TEXT 120 152 Left 2 !.dc V2 0 5 10m
TEXT -96 96 Left 2 !.include modelos.sp
TEXT -96 -120 Left 2 !.meas corriente1 find id(m1) at 0.5\n.meas dc r1 param=0.5/corriente1\n.meas corriente2 find id(m1) at 1\n.meas dc r2 param=1/corriente2\n.meas corriente3 find id(m1) at 2\n.meas dc r3 param=2/corriente3\n.meas corriente4 find id(m1) at 3.3\n.meas dc r4 param=3.3/corriente4
