Version 4
SHEET 1 936 680
WIRE 112 128 64 128
WIRE 112 160 64 160
WIRE 272 160 208 160
WIRE 400 176 368 176
WIRE 112 192 48 192
WIRE 272 192 240 192
WIRE 400 192 400 176
WIRE 48 240 48 192
WIRE 240 240 240 192
WIRE 240 240 48 240
WIRE 48 256 48 240
WIRE 352 368 352 352
WIRE 480 368 480 352
WIRE 48 400 48 336
WIRE 352 528 352 448
WIRE 480 528 480 448
FLAG 48 400 0
FLAG 352 528 0
FLAG 480 528 0
FLAG 480 352 A
FLAG 352 352 B
FLAG 64 128 A
IOPIN 64 128 In
FLAG 64 160 B
IOPIN 64 160 In
FLAG 400 256 0
SYMBOL NAND2mA_2IN_SIMB 160 160 R0
SYMATTR InstName X1
SYMBOL Inversor2MA 320 176 R0
SYMATTR InstName X2
SYMBOL voltage 48 240 R0
WINDOW 123 0 0 Left 0
WINDOW 39 0 0 Left 0
SYMATTR InstName V1
SYMATTR Value 3.3
SYMBOL voltage 352 352 R0
WINDOW 3 -166 127 Left 2
WINDOW 123 0 0 Left 0
WINDOW 39 0 0 Left 0
SYMATTR Value PULSE(0 3.3 2u 10n 10n 2u 4u)
SYMATTR InstName V2
SYMBOL voltage 480 352 R0
WINDOW 123 0 0 Left 0
WINDOW 39 0 0 Left 0
SYMATTR InstName V3
SYMATTR Value PULSE(0 3.3 1u 10n 10n 1u 2u)
SYMBOL cap 384 192 R0
WINDOW 3 23 44 Left 2
SYMATTR InstName C1
SYMATTR Value 10p
TEXT 496 208 Left 2 !.tran 0 6u 0 10n
TEXT 496 176 Left 2 !.include modelos.sp
