Version 4
SHEET 1 880 680
WIRE 64 144 16 144
WIRE 208 160 192 160
WIRE 64 176 16 176
WIRE 192 176 192 160
WIRE 192 176 160 176
WIRE 352 176 304 176
WIRE 208 192 176 192
WIRE 352 192 352 176
WIRE 64 208 -16 208
WIRE -16 256 -16 208
WIRE 176 256 176 192
WIRE 176 256 -16 256
WIRE -16 272 -16 256
WIRE 240 352 240 320
WIRE 384 352 384 320
WIRE -16 368 -16 352
WIRE 240 464 240 432
WIRE 384 464 384 432
FLAG 352 256 0
FLAG -16 368 0
FLAG 240 320 B
FLAG 240 464 0
FLAG 384 320 A
FLAG 384 464 0
FLAG 16 144 A
IOPIN 16 144 In
FLAG 16 176 B
IOPIN 16 176 In
SYMBOL NAND3mA_2IN_SIMB 112 176 R0
SYMATTR InstName X1
SYMBOL Inversor3mA 256 176 R0
SYMATTR InstName X2
SYMBOL cap 336 192 R0
SYMATTR InstName C1
SYMATTR Value 10p
SYMBOL voltage -16 256 R0
WINDOW 123 0 0 Left 0
WINDOW 39 0 0 Left 0
SYMATTR InstName V1
SYMATTR Value 3.3
SYMBOL voltage 240 336 R0
WINDOW 3 -239 174 Left 2
WINDOW 123 0 0 Left 0
WINDOW 39 0 0 Left 0
SYMATTR InstName V2
SYMATTR Value PULSE(0 3.0 2u 10n 10n 2u 4u)
SYMBOL voltage 384 336 R0
WINDOW 3 25 158 Left 2
WINDOW 123 0 0 Left 0
WINDOW 39 0 0 Left 0
SYMATTR InstName V3
SYMATTR Value PULSE(0 3.0 0 10n 10n 1u 2u)
TEXT 520 360 Left 2 !.include modelos.sp
TEXT 520 312 Left 2 !.tran 0 6u 0 10n
