Version 4
SHEET 1 880 680
WIRE 48 96 0 96
WIRE 48 128 0 128
WIRE 224 128 144 128
WIRE 384 144 320 144
WIRE 48 160 32 160
WIRE 224 160 208 160
WIRE 32 208 32 160
WIRE 32 208 -16 208
WIRE 208 208 208 160
WIRE 208 208 32 208
WIRE -16 240 -16 208
WIRE 384 240 384 208
WIRE 192 336 192 304
WIRE 288 336 288 304
FLAG 384 240 0
FLAG -16 320 0
FLAG 0 96 A
IOPIN 0 96 In
FLAG 0 128 B
IOPIN 0 128 In
FLAG 192 304 A
FLAG 288 304 B
FLAG 192 416 0
FLAG 288 416 0
SYMBOL NAND1mA_2IN_SIMB 96 128 R0
SYMATTR InstName X1
SYMBOL Inversor1mA 272 144 R0
SYMATTR InstName X2
SYMBOL cap 368 144 R0
SYMATTR InstName C1
SYMATTR Value 10p
SYMBOL voltage -16 224 R0
WINDOW 123 0 0 Left 0
WINDOW 39 0 0 Left 0
SYMATTR InstName V1
SYMATTR Value 3.3
SYMBOL voltage 192 320 R0
WINDOW 3 -307 101 Left 2
WINDOW 123 0 0 Left 0
WINDOW 39 0 0 Left 0
SYMATTR InstName V2
SYMATTR Value PULSE(0 3.3 0 10n 10n 1u 2u)
SYMBOL voltage 288 320 R0
WINDOW 123 0 0 Left 0
WINDOW 39 0 0 Left 0
SYMATTR InstName V3
SYMATTR Value PULSE(0 3.3 2u 10n 10n 2u 4u)
TEXT 520 192 Left 2 !.include modelos.sp
TEXT 528 152 Left 2 !.tran 0 6u 0 10n
