Version 4
SHEET 1 880 680
WIRE 80 32 -176 32
WIRE 80 64 16 64
WIRE 272 64 176 64
WIRE -176 96 -176 32
WIRE -176 96 -224 96
WIRE -128 96 -176 96
WIRE 80 96 64 96
WIRE 272 96 272 64
WIRE 304 96 272 96
WIRE -176 128 -224 128
WIRE -128 128 -176 128
WIRE 16 128 16 64
WIRE 16 128 -32 128
WIRE 304 128 224 128
WIRE 448 128 400 128
WIRE 448 144 448 128
WIRE -128 160 -192 160
WIRE 304 160 288 160
WIRE 16 192 16 128
WIRE 80 192 16 192
WIRE -176 224 -176 128
WIRE 80 224 -176 224
WIRE 224 224 224 128
WIRE 224 224 176 224
WIRE 80 256 64 256
FLAG 128 448 0
FLAG -224 128 B
IOPIN -224 128 In
FLAG -224 96 A
IOPIN -224 96 In
FLAG 288 160 VDD
IOPIN 288 160 In
FLAG 64 96 VDD
IOPIN 64 96 In
FLAG 64 256 VDD
IOPIN 64 256 In
FLAG -192 160 VDD
IOPIN -192 160 In
FLAG 128 368 VDD
FLAG 256 448 0
FLAG 256 368 A
FLAG 352 448 0
FLAG 352 368 B
FLAG 448 208 0
SYMBOL NAND2mA_2IN_SIMB -80 128 R0
SYMATTR InstName X1
SYMBOL NAND2mA_2IN_SIMB 128 64 R0
SYMATTR InstName X2
SYMBOL NAND2mA_2IN_SIMB 128 224 R0
SYMATTR InstName X3
SYMBOL NAND2mA_2IN_SIMB 352 128 R0
SYMATTR InstName X4
SYMBOL voltage 128 352 R0
WINDOW 123 0 0 Left 0
WINDOW 39 0 0 Left 0
SYMATTR InstName V1
SYMATTR Value 3.3
SYMBOL voltage 256 352 R0
WINDOW 3 -182 145 Left 2
WINDOW 123 0 0 Left 0
WINDOW 39 0 0 Left 0
SYMATTR Value PULSE(0 3.3 1u 10n 10n 1u 2u)
SYMATTR InstName V2
SYMBOL voltage 352 352 R0
WINDOW 3 57 97 Left 2
WINDOW 123 0 0 Left 0
WINDOW 39 0 0 Left 0
SYMATTR Value PULSE(0 3.3 2u 10n 10n 2u 4u)
SYMATTR InstName V3
SYMBOL cap 432 144 R0
SYMATTR InstName C1
SYMATTR Value 10p
TEXT 568 32 Left 2 !.include modelos.sp
TEXT 568 88 Left 2 !.tran 0 6u 0 10n
