Version 4
SHEET 1 1000 680
WIRE 192 48 -144 48
WIRE 192 80 96 80
WIRE 432 80 288 80
WIRE -144 144 -144 48
WIRE -48 144 -144 144
WIRE 432 144 432 80
WIRE 464 144 432 144
WIRE -48 176 -144 176
WIRE 96 176 96 80
WIRE 96 176 48 176
WIRE 464 176 384 176
WIRE 608 176 560 176
WIRE 608 192 608 176
WIRE 96 256 96 176
WIRE 192 256 96 256
WIRE -144 288 -144 176
WIRE 192 288 -144 288
WIRE 384 288 384 176
WIRE 384 288 288 288
FLAG 464 208 VDD
IOPIN 464 208 In
FLAG 192 112 VDD
IOPIN 192 112 In
FLAG -48 208 VDD
IOPIN -48 208 In
FLAG 192 320 VDD
IOPIN 192 320 In
FLAG 32 400 VDD
FLAG 32 480 0
FLAG 608 256 0
FLAG 336 464 0
FLAG 336 384 A
FLAG 496 464 0
FLAG 496 384 B
FLAG -144 48 A
IOPIN -144 48 In
FLAG -144 288 B
IOPIN -144 288 In
SYMBOL NAND1mA_2IN_SIMB 0 176 R0
SYMATTR InstName X1
SYMBOL NAND1mA_2IN_SIMB 240 80 R0
SYMATTR InstName X2
SYMBOL NAND1mA_2IN_SIMB 240 288 R0
SYMATTR InstName X3
SYMBOL NAND1mA_2IN_SIMB 512 176 R0
SYMATTR InstName X4
SYMBOL voltage 32 384 R0
WINDOW 123 0 0 Left 0
WINDOW 39 0 0 Left 0
SYMATTR InstName V1
SYMATTR Value 3.3
SYMBOL cap 592 192 R0
SYMATTR InstName C1
SYMATTR Value 10p
SYMBOL voltage 336 368 R0
WINDOW 3 -204 137 Left 2
WINDOW 123 0 0 Left 0
WINDOW 39 0 0 Left 0
SYMATTR InstName V2
SYMATTR Value PULSE(0 3.3 1u 10n 10n 1u 2u)
SYMBOL voltage 496 368 R0
WINDOW 3 78 65 Left 2
WINDOW 123 0 0 Left 0
WINDOW 39 0 0 Left 0
SYMATTR InstName V3
SYMATTR Value PULSE(0 3.3 2u 10n 10n 2u 4u)
TEXT 760 136 Left 2 !.include modelos.sp
TEXT 768 176 Left 2 !.tran 0 6u 0 10n
