Version 4
SHEET 1 880 680
WIRE 160 96 -176 96
WIRE 160 128 48 128
WIRE 352 128 256 128
WIRE -176 160 -176 96
WIRE -176 160 -224 160
WIRE 160 160 144 160
WIRE -176 176 -176 160
WIRE -80 176 -176 176
WIRE 352 176 352 128
WIRE 400 176 352 176
WIRE -80 208 -176 208
WIRE 48 208 48 128
WIRE 48 208 16 208
WIRE 400 208 368 208
WIRE 544 208 496 208
WIRE -176 224 -176 208
WIRE -176 224 -224 224
WIRE -80 240 -96 240
WIRE 400 240 352 240
WIRE 48 256 48 208
WIRE 160 256 48 256
WIRE -176 288 -176 224
WIRE 160 288 -176 288
WIRE 368 288 368 208
WIRE 368 288 256 288
WIRE 160 320 144 320
FLAG 144 160 VDD
IOPIN 144 160 In
FLAG 144 320 VDD
IOPIN 144 320 In
FLAG 352 240 VDD
IOPIN 352 240 In
FLAG -96 240 VDD
IOPIN -96 240 In
FLAG 544 272 0
FLAG -80 432 VDD
FLAG -80 512 0
FLAG 80 512 0
FLAG 80 432 A
FLAG 176 512 0
FLAG 176 432 B
FLAG -224 160 A
IOPIN -224 160 In
FLAG -224 224 B
IOPIN -224 224 In
SYMBOL NAND3mA_2IN_SIMB -32 208 R0
SYMATTR InstName X1
SYMBOL NAND3mA_2IN_SIMB 208 128 R0
SYMATTR InstName X2
SYMBOL NAND3mA_2IN_SIMB 208 288 R0
SYMATTR InstName X3
SYMBOL NAND3mA_2IN_SIMB 448 208 R0
SYMATTR InstName X4
SYMBOL cap 528 208 R0
SYMATTR InstName C1
SYMATTR Value 10p
SYMBOL voltage -80 416 R0
WINDOW 123 0 0 Left 0
WINDOW 39 0 0 Left 0
SYMATTR InstName V1
SYMATTR Value 3.3
SYMBOL voltage 80 416 R0
WINDOW 3 -211 164 Left 2
WINDOW 123 0 0 Left 0
WINDOW 39 0 0 Left 0
SYMATTR InstName V2
SYMATTR Value PULSE(0 3.3 1u 10n 10n 1u 2u)
SYMBOL voltage 176 416 R0
WINDOW 3 13 128 Left 2
WINDOW 123 0 0 Left 0
WINDOW 39 0 0 Left 0
SYMATTR InstName V3
SYMATTR Value PULSE(0 3.3 2u 10n 10n 2u 4u)
TEXT 448 376 Left 2 !.tran 0 6u 0 10n
TEXT 448 344 Left 2 !.include modelos.sp
